**************************************************
* OpenRAM generated memory.
* Words: 16
* Data bits: 576
* Banks: 1
* Column mux: 1:1
* Trimmed: False
* LVS: True
**************************************************
* File: DFFPOSX1.pex.netlist
* Created: Wed Jan  2 18:36:24 2008
* Program "Calibre xRC"
* Version "v2007.2_34.24"
*
.subckt dff D Q clk vdd gnd
*
MM21 Q a_66_6# gnd gnd NMOS_VTG L=5e-08 W=5e-07
MM19 a_76_6# a_2_6# a_66_6# gnd NMOS_VTG L=5e-08 W=2.5e-07
MM20 gnd Q a_76_6# gnd NMOS_VTG L=5e-08 W=2.5e-07
MM18 a_66_6# clk a_61_6# gnd NMOS_VTG L=5e-08 W=2.5e-07
MM17 a_61_6# a_34_4# gnd gnd NMOS_VTG L=5e-08 W=2.5e-07
MM10 gnd clk a_2_6# gnd NMOS_VTG L=5e-08 W=5e-07
MM16 a_34_4# a_22_6# gnd gnd NMOS_VTG L=5e-08 W=2.5e-07
MM15 gnd a_34_4# a_31_6# gnd NMOS_VTG L=5e-08 W=2.5e-07
MM14 a_31_6# clk a_22_6# gnd NMOS_VTG L=5e-08 W=2.5e-07
MM13 a_22_6# a_2_6# a_17_6# gnd NMOS_VTG L=5e-08 W=2.5e-07
MM12 a_17_6# D gnd gnd NMOS_VTG L=5e-08 W=2.5e-07
MM11 Q a_66_6# vdd vdd PMOS_VTG L=5e-08 W=1e-06
MM9 vdd Q a_76_84# vdd PMOS_VTG L=5e-08 W=2.5e-07
MM8 a_76_84# clk a_66_6# vdd PMOS_VTG L=5e-08 W=2.5e-07
MM7 a_66_6# a_2_6# a_61_74# vdd PMOS_VTG L=5e-08 W=5e-07
MM6 a_61_74# a_34_4# vdd vdd PMOS_VTG L=5e-08 W=5e-07
MM0 vdd clk a_2_6# vdd PMOS_VTG L=5e-08 W=1e-06
MM5 a_34_4# a_22_6# vdd vdd PMOS_VTG L=5e-08 W=5e-07
MM4 vdd a_34_4# a_31_74# vdd PMOS_VTG L=5e-08 W=5e-07
MM3 a_31_74# a_2_6# a_22_6# vdd PMOS_VTG L=5e-08 W=5e-07
MM2 a_22_6# clk a_17_74# vdd PMOS_VTG L=5e-08 W=5e-07
MM1 a_17_74# D vdd vdd PMOS_VTG L=5e-08 W=5e-07
* c_9 a_66_6# 0 0.271997f
* c_20 clk 0 0.350944f
* c_27 Q 0 0.202617f
* c_32 a_76_84# 0 0.0210573f
* c_38 a_76_6# 0 0.0204911f
* c_45 a_34_4# 0 0.172306f
* c_55 a_2_6# 0 0.283119f
* c_59 a_22_6# 0 0.157312f
* c_64 D 0 0.0816386f
* c_73 gnd 0 0.254131f
* c_81 vdd 0 0.23624f
*
*.include "dff.pex.netlist.dff.pxi"
*
.ends
*
*

* spice ptx M{0} {1} pmos_vtg m=2 w=0.54u l=0.05u pd=1.18u ps=1.18u as=0.07p ad=0.07p

* spice ptx M{0} {1} nmos_vtg m=2 w=0.18u l=0.05u pd=0.46u ps=0.46u as=0.02p ad=0.02p

.SUBCKT sram_0rw1r1w_576_16_freepdk45_pinv_2
+ A Z vdd gnd
* INPUT : A 
* OUTPUT: Z 
* POWER : vdd 
* GROUND: gnd 
* size: 4
Mpinv_pmos Z A vdd vdd pmos_vtg m=2 w=0.54u l=0.05u 
Mpinv_nmos Z A gnd gnd nmos_vtg m=2 w=0.18u l=0.05u 
.ENDS sram_0rw1r1w_576_16_freepdk45_pinv_2

* spice ptx M{0} {1} pmos_vtg m=1 w=0.54u l=0.05u pd=1.18u ps=1.18u as=0.07p ad=0.07p

* spice ptx M{0} {1} nmos_vtg m=1 w=0.18u l=0.05u pd=0.46u ps=0.46u as=0.02p ad=0.02p

.SUBCKT sram_0rw1r1w_576_16_freepdk45_pinv_1
+ A Z vdd gnd
* INPUT : A 
* OUTPUT: Z 
* POWER : vdd 
* GROUND: gnd 
* size: 2
Mpinv_pmos Z A vdd vdd pmos_vtg m=1 w=0.54u l=0.05u 
Mpinv_nmos Z A gnd gnd nmos_vtg m=1 w=0.18u l=0.05u 
.ENDS sram_0rw1r1w_576_16_freepdk45_pinv_1

.SUBCKT sram_0rw1r1w_576_16_freepdk45_dff_buf_0
+ D Q Qb clk vdd gnd
* INPUT : D 
* OUTPUT: Q 
* OUTPUT: Qb 
* INPUT : clk 
* POWER : vdd 
* GROUND: gnd 
* inv1: 2 inv2: 4
Xdff_buf_dff
+ D qint clk vdd gnd
+ dff
Xdff_buf_inv1
+ qint Qb vdd gnd
+ sram_0rw1r1w_576_16_freepdk45_pinv_1
Xdff_buf_inv2
+ Qb Q vdd gnd
+ sram_0rw1r1w_576_16_freepdk45_pinv_2
.ENDS sram_0rw1r1w_576_16_freepdk45_dff_buf_0

.SUBCKT sram_0rw1r1w_576_16_freepdk45_dff_buf_array
+ din_0 dout_0 dout_bar_0 clk vdd gnd
* INPUT : din_0 
* OUTPUT: dout_0 
* OUTPUT: dout_bar_0 
* INPUT : clk 
* POWER : vdd 
* GROUND: gnd 
* rows: 1 cols: 1
* inv1: 2 inv2: 4
Xdff_r0_c0
+ din_0 dout_0 dout_bar_0 clk vdd gnd
+ sram_0rw1r1w_576_16_freepdk45_dff_buf_0
.ENDS sram_0rw1r1w_576_16_freepdk45_dff_buf_array

* spice ptx M{0} {1} nmos_vtg m=2 w=0.225u l=0.05u pd=0.55u ps=0.55u as=0.03p ad=0.03p

* spice ptx M{0} {1} pmos_vtg m=2 w=0.675u l=0.05u pd=1.45u ps=1.45u as=0.08p ad=0.08p

.SUBCKT sram_0rw1r1w_576_16_freepdk45_pinv_12
+ A Z vdd gnd
* INPUT : A 
* OUTPUT: Z 
* POWER : vdd 
* GROUND: gnd 
* size: 5
Mpinv_pmos Z A vdd vdd pmos_vtg m=2 w=0.675u l=0.05u 
Mpinv_nmos Z A gnd gnd nmos_vtg m=2 w=0.225u l=0.05u 
.ENDS sram_0rw1r1w_576_16_freepdk45_pinv_12

* spice ptx M{0} {1} pmos_vtg m=1 w=0.27u l=0.05u pd=0.64u ps=0.64u as=0.03p ad=0.03p

* spice ptx M{0} {1} nmos_vtg m=1 w=0.09u l=0.05u pd=0.28u ps=0.28u as=0.01p ad=0.01p

.SUBCKT sram_0rw1r1w_576_16_freepdk45_pinv_6
+ A Z vdd gnd
* INPUT : A 
* OUTPUT: Z 
* POWER : vdd 
* GROUND: gnd 
* size: 1
Mpinv_pmos Z A vdd vdd pmos_vtg m=1 w=0.27u l=0.05u 
Mpinv_nmos Z A gnd gnd nmos_vtg m=1 w=0.09u l=0.05u 
.ENDS sram_0rw1r1w_576_16_freepdk45_pinv_6

.SUBCKT sram_0rw1r1w_576_16_freepdk45_pdriver_1
+ A Z vdd gnd
* INPUT : A 
* OUTPUT: Z 
* POWER : vdd 
* GROUND: gnd 
* sizes: [1, 5]
Xbuf_inv1
+ A Zb1_int vdd gnd
+ sram_0rw1r1w_576_16_freepdk45_pinv_6
Xbuf_inv2
+ Zb1_int Z vdd gnd
+ sram_0rw1r1w_576_16_freepdk45_pinv_12
.ENDS sram_0rw1r1w_576_16_freepdk45_pdriver_1

* spice ptx M{0} {1} pmos_vtg m=3 w=0.63u l=0.05u pd=1.36u ps=1.36u as=0.08p ad=0.08p

* spice ptx M{0} {1} nmos_vtg m=3 w=0.21u l=0.05u pd=0.52u ps=0.52u as=0.03p ad=0.03p

.SUBCKT sram_0rw1r1w_576_16_freepdk45_pinv_17
+ A Z vdd gnd
* INPUT : A 
* OUTPUT: Z 
* POWER : vdd 
* GROUND: gnd 
* size: 7
Mpinv_pmos Z A vdd vdd pmos_vtg m=3 w=0.63u l=0.05u 
Mpinv_nmos Z A gnd gnd nmos_vtg m=3 w=0.21u l=0.05u 
.ENDS sram_0rw1r1w_576_16_freepdk45_pinv_17

.SUBCKT sram_0rw1r1w_576_16_freepdk45_pinv_16
+ A Z vdd gnd
* INPUT : A 
* OUTPUT: Z 
* POWER : vdd 
* GROUND: gnd 
* size: 2
Mpinv_pmos Z A vdd vdd pmos_vtg m=1 w=0.54u l=0.05u 
Mpinv_nmos Z A gnd gnd nmos_vtg m=1 w=0.18u l=0.05u 
.ENDS sram_0rw1r1w_576_16_freepdk45_pinv_16

* spice ptx M{0} {1} nmos_vtg m=57 w=0.3025u l=0.05u pd=0.70u ps=0.70u as=0.04p ad=0.04p

* spice ptx M{0} {1} pmos_vtg m=57 w=0.91u l=0.05u pd=1.92u ps=1.92u as=0.11p ad=0.11p

.SUBCKT sram_0rw1r1w_576_16_freepdk45_pinv_20
+ A Z vdd gnd
* INPUT : A 
* OUTPUT: Z 
* POWER : vdd 
* GROUND: gnd 
* size: 192
Mpinv_pmos Z A vdd vdd pmos_vtg m=57 w=0.91u l=0.05u 
Mpinv_nmos Z A gnd gnd nmos_vtg m=57 w=0.3025u l=0.05u 
.ENDS sram_0rw1r1w_576_16_freepdk45_pinv_20

* spice ptx M{0} {1} nmos_vtg m=19 w=0.3025u l=0.05u pd=0.70u ps=0.70u as=0.04p ad=0.04p

* spice ptx M{0} {1} pmos_vtg m=19 w=0.91u l=0.05u pd=1.92u ps=1.92u as=0.11p ad=0.11p

.SUBCKT sram_0rw1r1w_576_16_freepdk45_pinv_19
+ A Z vdd gnd
* INPUT : A 
* OUTPUT: Z 
* POWER : vdd 
* GROUND: gnd 
* size: 64
Mpinv_pmos Z A vdd vdd pmos_vtg m=19 w=0.91u l=0.05u 
Mpinv_nmos Z A gnd gnd nmos_vtg m=19 w=0.3025u l=0.05u 
.ENDS sram_0rw1r1w_576_16_freepdk45_pinv_19

* spice ptx M{0} {1} nmos_vtg m=7 w=0.27u l=0.05u pd=0.64u ps=0.64u as=0.03p ad=0.03p

* spice ptx M{0} {1} pmos_vtg m=7 w=0.81u l=0.05u pd=1.72u ps=1.72u as=0.10p ad=0.10p

.SUBCKT sram_0rw1r1w_576_16_freepdk45_pinv_18
+ A Z vdd gnd
* INPUT : A 
* OUTPUT: Z 
* POWER : vdd 
* GROUND: gnd 
* size: 21
Mpinv_pmos Z A vdd vdd pmos_vtg m=7 w=0.81u l=0.05u 
Mpinv_nmos Z A gnd gnd nmos_vtg m=7 w=0.27u l=0.05u 
.ENDS sram_0rw1r1w_576_16_freepdk45_pinv_18

.SUBCKT sram_0rw1r1w_576_16_freepdk45_pdriver_4
+ A Z vdd gnd
* INPUT : A 
* OUTPUT: Z 
* POWER : vdd 
* GROUND: gnd 
* sizes: [1, 1, 1, 2, 7, 21, 64, 192]
Xbuf_inv1
+ A Zb1_int vdd gnd
+ sram_0rw1r1w_576_16_freepdk45_pinv_6
Xbuf_inv2
+ Zb1_int Zb2_int vdd gnd
+ sram_0rw1r1w_576_16_freepdk45_pinv_6
Xbuf_inv3
+ Zb2_int Zb3_int vdd gnd
+ sram_0rw1r1w_576_16_freepdk45_pinv_6
Xbuf_inv4
+ Zb3_int Zb4_int vdd gnd
+ sram_0rw1r1w_576_16_freepdk45_pinv_16
Xbuf_inv5
+ Zb4_int Zb5_int vdd gnd
+ sram_0rw1r1w_576_16_freepdk45_pinv_17
Xbuf_inv6
+ Zb5_int Zb6_int vdd gnd
+ sram_0rw1r1w_576_16_freepdk45_pinv_18
Xbuf_inv7
+ Zb6_int Zb7_int vdd gnd
+ sram_0rw1r1w_576_16_freepdk45_pinv_19
Xbuf_inv8
+ Zb7_int Z vdd gnd
+ sram_0rw1r1w_576_16_freepdk45_pinv_20
.ENDS sram_0rw1r1w_576_16_freepdk45_pdriver_4

.SUBCKT sram_0rw1r1w_576_16_freepdk45_pinv_21
+ A Z vdd gnd
* INPUT : A 
* OUTPUT: Z 
* POWER : vdd 
* GROUND: gnd 
* size: 1
Mpinv_pmos Z A vdd vdd pmos_vtg m=1 w=0.27u l=0.05u 
Mpinv_nmos Z A gnd gnd nmos_vtg m=1 w=0.09u l=0.05u 
.ENDS sram_0rw1r1w_576_16_freepdk45_pinv_21

.SUBCKT sram_0rw1r1w_576_16_freepdk45_delay_chain
+ in out vdd gnd
* INPUT : in 
* OUTPUT: out 
* POWER : vdd 
* GROUND: gnd 
* fanouts: [4, 4, 4, 4, 4, 4, 4, 4, 4]
Xdinv0
+ in dout_1 vdd gnd
+ sram_0rw1r1w_576_16_freepdk45_pinv_21
Xdload_0_0
+ dout_1 n_0_0 vdd gnd
+ sram_0rw1r1w_576_16_freepdk45_pinv_21
Xdload_0_1
+ dout_1 n_0_1 vdd gnd
+ sram_0rw1r1w_576_16_freepdk45_pinv_21
Xdload_0_2
+ dout_1 n_0_2 vdd gnd
+ sram_0rw1r1w_576_16_freepdk45_pinv_21
Xdload_0_3
+ dout_1 n_0_3 vdd gnd
+ sram_0rw1r1w_576_16_freepdk45_pinv_21
Xdinv1
+ dout_1 dout_2 vdd gnd
+ sram_0rw1r1w_576_16_freepdk45_pinv_21
Xdload_1_0
+ dout_2 n_1_0 vdd gnd
+ sram_0rw1r1w_576_16_freepdk45_pinv_21
Xdload_1_1
+ dout_2 n_1_1 vdd gnd
+ sram_0rw1r1w_576_16_freepdk45_pinv_21
Xdload_1_2
+ dout_2 n_1_2 vdd gnd
+ sram_0rw1r1w_576_16_freepdk45_pinv_21
Xdload_1_3
+ dout_2 n_1_3 vdd gnd
+ sram_0rw1r1w_576_16_freepdk45_pinv_21
Xdinv2
+ dout_2 dout_3 vdd gnd
+ sram_0rw1r1w_576_16_freepdk45_pinv_21
Xdload_2_0
+ dout_3 n_2_0 vdd gnd
+ sram_0rw1r1w_576_16_freepdk45_pinv_21
Xdload_2_1
+ dout_3 n_2_1 vdd gnd
+ sram_0rw1r1w_576_16_freepdk45_pinv_21
Xdload_2_2
+ dout_3 n_2_2 vdd gnd
+ sram_0rw1r1w_576_16_freepdk45_pinv_21
Xdload_2_3
+ dout_3 n_2_3 vdd gnd
+ sram_0rw1r1w_576_16_freepdk45_pinv_21
Xdinv3
+ dout_3 dout_4 vdd gnd
+ sram_0rw1r1w_576_16_freepdk45_pinv_21
Xdload_3_0
+ dout_4 n_3_0 vdd gnd
+ sram_0rw1r1w_576_16_freepdk45_pinv_21
Xdload_3_1
+ dout_4 n_3_1 vdd gnd
+ sram_0rw1r1w_576_16_freepdk45_pinv_21
Xdload_3_2
+ dout_4 n_3_2 vdd gnd
+ sram_0rw1r1w_576_16_freepdk45_pinv_21
Xdload_3_3
+ dout_4 n_3_3 vdd gnd
+ sram_0rw1r1w_576_16_freepdk45_pinv_21
Xdinv4
+ dout_4 dout_5 vdd gnd
+ sram_0rw1r1w_576_16_freepdk45_pinv_21
Xdload_4_0
+ dout_5 n_4_0 vdd gnd
+ sram_0rw1r1w_576_16_freepdk45_pinv_21
Xdload_4_1
+ dout_5 n_4_1 vdd gnd
+ sram_0rw1r1w_576_16_freepdk45_pinv_21
Xdload_4_2
+ dout_5 n_4_2 vdd gnd
+ sram_0rw1r1w_576_16_freepdk45_pinv_21
Xdload_4_3
+ dout_5 n_4_3 vdd gnd
+ sram_0rw1r1w_576_16_freepdk45_pinv_21
Xdinv5
+ dout_5 dout_6 vdd gnd
+ sram_0rw1r1w_576_16_freepdk45_pinv_21
Xdload_5_0
+ dout_6 n_5_0 vdd gnd
+ sram_0rw1r1w_576_16_freepdk45_pinv_21
Xdload_5_1
+ dout_6 n_5_1 vdd gnd
+ sram_0rw1r1w_576_16_freepdk45_pinv_21
Xdload_5_2
+ dout_6 n_5_2 vdd gnd
+ sram_0rw1r1w_576_16_freepdk45_pinv_21
Xdload_5_3
+ dout_6 n_5_3 vdd gnd
+ sram_0rw1r1w_576_16_freepdk45_pinv_21
Xdinv6
+ dout_6 dout_7 vdd gnd
+ sram_0rw1r1w_576_16_freepdk45_pinv_21
Xdload_6_0
+ dout_7 n_6_0 vdd gnd
+ sram_0rw1r1w_576_16_freepdk45_pinv_21
Xdload_6_1
+ dout_7 n_6_1 vdd gnd
+ sram_0rw1r1w_576_16_freepdk45_pinv_21
Xdload_6_2
+ dout_7 n_6_2 vdd gnd
+ sram_0rw1r1w_576_16_freepdk45_pinv_21
Xdload_6_3
+ dout_7 n_6_3 vdd gnd
+ sram_0rw1r1w_576_16_freepdk45_pinv_21
Xdinv7
+ dout_7 dout_8 vdd gnd
+ sram_0rw1r1w_576_16_freepdk45_pinv_21
Xdload_7_0
+ dout_8 n_7_0 vdd gnd
+ sram_0rw1r1w_576_16_freepdk45_pinv_21
Xdload_7_1
+ dout_8 n_7_1 vdd gnd
+ sram_0rw1r1w_576_16_freepdk45_pinv_21
Xdload_7_2
+ dout_8 n_7_2 vdd gnd
+ sram_0rw1r1w_576_16_freepdk45_pinv_21
Xdload_7_3
+ dout_8 n_7_3 vdd gnd
+ sram_0rw1r1w_576_16_freepdk45_pinv_21
Xdinv8
+ dout_8 out vdd gnd
+ sram_0rw1r1w_576_16_freepdk45_pinv_21
Xdload_8_0
+ out n_8_0 vdd gnd
+ sram_0rw1r1w_576_16_freepdk45_pinv_21
Xdload_8_1
+ out n_8_1 vdd gnd
+ sram_0rw1r1w_576_16_freepdk45_pinv_21
Xdload_8_2
+ out n_8_2 vdd gnd
+ sram_0rw1r1w_576_16_freepdk45_pinv_21
Xdload_8_3
+ out n_8_3 vdd gnd
+ sram_0rw1r1w_576_16_freepdk45_pinv_21
.ENDS sram_0rw1r1w_576_16_freepdk45_delay_chain

* spice ptx M{0} {1} pmos_vtg m=1 w=0.27u l=0.05u pd=0.64u ps=0.64u as=0.03p ad=0.03p

* spice ptx M{0} {1} nmos_vtg m=1 w=0.18u l=0.05u pd=0.46u ps=0.46u as=0.02p ad=0.02p

* spice ptx M{0} {1} nmos_vtg m=1 w=0.18u l=0.05u pd=0.46u ps=0.46u as=0.02p ad=0.02p

.SUBCKT sram_0rw1r1w_576_16_freepdk45_pnand2_0
+ A B Z vdd gnd
* INPUT : A 
* INPUT : B 
* OUTPUT: Z 
* POWER : vdd 
* GROUND: gnd 
* size: 1
Mpnand2_pmos1 vdd A Z vdd pmos_vtg m=1 w=0.27u l=0.05u 
Mpnand2_pmos2 Z B vdd vdd pmos_vtg m=1 w=0.27u l=0.05u 
Mpnand2_nmos1 Z B net1 gnd nmos_vtg m=1 w=0.18u l=0.05u 
Mpnand2_nmos2 net1 A gnd gnd nmos_vtg m=1 w=0.18u l=0.05u 
.ENDS sram_0rw1r1w_576_16_freepdk45_pnand2_0

* spice ptx M{0} {1} nmos_vtg m=4 w=0.27u l=0.05u pd=0.64u ps=0.64u as=0.03p ad=0.03p

* spice ptx M{0} {1} pmos_vtg m=4 w=0.81u l=0.05u pd=1.72u ps=1.72u as=0.10p ad=0.10p

.SUBCKT sram_0rw1r1w_576_16_freepdk45_pinv_3
+ A Z vdd gnd
* INPUT : A 
* OUTPUT: Z 
* POWER : vdd 
* GROUND: gnd 
* size: 12
Mpinv_pmos Z A vdd vdd pmos_vtg m=4 w=0.81u l=0.05u 
Mpinv_nmos Z A gnd gnd nmos_vtg m=4 w=0.27u l=0.05u 
.ENDS sram_0rw1r1w_576_16_freepdk45_pinv_3

.SUBCKT sram_0rw1r1w_576_16_freepdk45_pdriver
+ A Z vdd gnd
* INPUT : A 
* OUTPUT: Z 
* POWER : vdd 
* GROUND: gnd 
* sizes: [12]
Xbuf_inv1
+ A Z vdd gnd
+ sram_0rw1r1w_576_16_freepdk45_pinv_3
.ENDS sram_0rw1r1w_576_16_freepdk45_pdriver

.SUBCKT sram_0rw1r1w_576_16_freepdk45_pand2
+ A B Z vdd gnd
* INPUT : A 
* INPUT : B 
* OUTPUT: Z 
* POWER : vdd 
* GROUND: gnd 
* size: 12
Xpand2_nand
+ A B zb_int vdd gnd
+ sram_0rw1r1w_576_16_freepdk45_pnand2_0
Xpand2_inv
+ zb_int Z vdd gnd
+ sram_0rw1r1w_576_16_freepdk45_pdriver
.ENDS sram_0rw1r1w_576_16_freepdk45_pand2

* spice ptx M{0} {1} nmos_vtg m=95 w=0.305u l=0.05u pd=0.71u ps=0.71u as=0.04p ad=0.04p

* spice ptx M{0} {1} pmos_vtg m=95 w=0.9175u l=0.05u pd=1.94u ps=1.94u as=0.11p ad=0.11p

.SUBCKT sram_0rw1r1w_576_16_freepdk45_pinv_10
+ A Z vdd gnd
* INPUT : A 
* OUTPUT: Z 
* POWER : vdd 
* GROUND: gnd 
* size: 323
Mpinv_pmos Z A vdd vdd pmos_vtg m=95 w=0.9175u l=0.05u 
Mpinv_nmos Z A gnd gnd nmos_vtg m=95 w=0.305u l=0.05u 
.ENDS sram_0rw1r1w_576_16_freepdk45_pinv_10

.SUBCKT sram_0rw1r1w_576_16_freepdk45_pinv_7
+ A Z vdd gnd
* INPUT : A 
* OUTPUT: Z 
* POWER : vdd 
* GROUND: gnd 
* size: 4
Mpinv_pmos Z A vdd vdd pmos_vtg m=2 w=0.54u l=0.05u 
Mpinv_nmos Z A gnd gnd nmos_vtg m=2 w=0.18u l=0.05u 
.ENDS sram_0rw1r1w_576_16_freepdk45_pinv_7

* spice ptx M{0} {1} pmos_vtg m=284 w=0.9225u l=0.05u pd=1.95u ps=1.95u as=0.12p ad=0.12p

* spice ptx M{0} {1} nmos_vtg m=284 w=0.3075u l=0.05u pd=0.71u ps=0.71u as=0.04p ad=0.04p

.SUBCKT sram_0rw1r1w_576_16_freepdk45_pinv_11
+ A Z vdd gnd
* INPUT : A 
* OUTPUT: Z 
* POWER : vdd 
* GROUND: gnd 
* size: 970
Mpinv_pmos Z A vdd vdd pmos_vtg m=284 w=0.9225u l=0.05u 
Mpinv_nmos Z A gnd gnd nmos_vtg m=284 w=0.3075u l=0.05u 
.ENDS sram_0rw1r1w_576_16_freepdk45_pinv_11

* spice ptx M{0} {1} pmos_vtg m=11 w=0.8825000000000001u l=0.05u pd=1.87u ps=1.87u as=0.11p ad=0.11p

* spice ptx M{0} {1} nmos_vtg m=11 w=0.295u l=0.05u pd=0.69u ps=0.69u as=0.04p ad=0.04p

.SUBCKT sram_0rw1r1w_576_16_freepdk45_pinv_8
+ A Z vdd gnd
* INPUT : A 
* OUTPUT: Z 
* POWER : vdd 
* GROUND: gnd 
* size: 36
Mpinv_pmos Z A vdd vdd pmos_vtg m=11 w=0.8825000000000001u l=0.05u 
Mpinv_nmos Z A gnd gnd nmos_vtg m=11 w=0.295u l=0.05u 
.ENDS sram_0rw1r1w_576_16_freepdk45_pinv_8

* spice ptx M{0} {1} nmos_vtg m=32 w=0.305u l=0.05u pd=0.71u ps=0.71u as=0.04p ad=0.04p

* spice ptx M{0} {1} pmos_vtg m=32 w=0.91u l=0.05u pd=1.92u ps=1.92u as=0.11p ad=0.11p

.SUBCKT sram_0rw1r1w_576_16_freepdk45_pinv_9
+ A Z vdd gnd
* INPUT : A 
* OUTPUT: Z 
* POWER : vdd 
* GROUND: gnd 
* size: 108
Mpinv_pmos Z A vdd vdd pmos_vtg m=32 w=0.91u l=0.05u 
Mpinv_nmos Z A gnd gnd nmos_vtg m=32 w=0.305u l=0.05u 
.ENDS sram_0rw1r1w_576_16_freepdk45_pinv_9

.SUBCKT sram_0rw1r1w_576_16_freepdk45_pdriver_0
+ A Z vdd gnd
* INPUT : A 
* OUTPUT: Z 
* POWER : vdd 
* GROUND: gnd 
* sizes: [1, 1, 1, 1, 1, 1, 1, 1, 4, 12, 36, 108, 323, 970]
Xbuf_inv1
+ A Zb1_int vdd gnd
+ sram_0rw1r1w_576_16_freepdk45_pinv_6
Xbuf_inv2
+ Zb1_int Zb2_int vdd gnd
+ sram_0rw1r1w_576_16_freepdk45_pinv_6
Xbuf_inv3
+ Zb2_int Zb3_int vdd gnd
+ sram_0rw1r1w_576_16_freepdk45_pinv_6
Xbuf_inv4
+ Zb3_int Zb4_int vdd gnd
+ sram_0rw1r1w_576_16_freepdk45_pinv_6
Xbuf_inv5
+ Zb4_int Zb5_int vdd gnd
+ sram_0rw1r1w_576_16_freepdk45_pinv_6
Xbuf_inv6
+ Zb5_int Zb6_int vdd gnd
+ sram_0rw1r1w_576_16_freepdk45_pinv_6
Xbuf_inv7
+ Zb6_int Zb7_int vdd gnd
+ sram_0rw1r1w_576_16_freepdk45_pinv_6
Xbuf_inv8
+ Zb7_int Zb8_int vdd gnd
+ sram_0rw1r1w_576_16_freepdk45_pinv_6
Xbuf_inv9
+ Zb8_int Zb9_int vdd gnd
+ sram_0rw1r1w_576_16_freepdk45_pinv_7
Xbuf_inv10
+ Zb9_int Zb10_int vdd gnd
+ sram_0rw1r1w_576_16_freepdk45_pinv_3
Xbuf_inv11
+ Zb10_int Zb11_int vdd gnd
+ sram_0rw1r1w_576_16_freepdk45_pinv_8
Xbuf_inv12
+ Zb11_int Zb12_int vdd gnd
+ sram_0rw1r1w_576_16_freepdk45_pinv_9
Xbuf_inv13
+ Zb12_int Zb13_int vdd gnd
+ sram_0rw1r1w_576_16_freepdk45_pinv_10
Xbuf_inv14
+ Zb13_int Z vdd gnd
+ sram_0rw1r1w_576_16_freepdk45_pinv_11
.ENDS sram_0rw1r1w_576_16_freepdk45_pdriver_0

.SUBCKT sram_0rw1r1w_576_16_freepdk45_pinv_15
+ A Z vdd gnd
* INPUT : A 
* OUTPUT: Z 
* POWER : vdd 
* GROUND: gnd 
* size: 1
Mpinv_pmos Z A vdd vdd pmos_vtg m=1 w=0.27u l=0.05u 
Mpinv_nmos Z A gnd gnd nmos_vtg m=1 w=0.09u l=0.05u 
.ENDS sram_0rw1r1w_576_16_freepdk45_pinv_15

.SUBCKT sram_0rw1r1w_576_16_freepdk45_pnand2_1
+ A B Z vdd gnd
* INPUT : A 
* INPUT : B 
* OUTPUT: Z 
* POWER : vdd 
* GROUND: gnd 
* size: 1
Mpnand2_pmos1 vdd A Z vdd pmos_vtg m=1 w=0.27u l=0.05u 
Mpnand2_pmos2 Z B vdd vdd pmos_vtg m=1 w=0.27u l=0.05u 
Mpnand2_nmos1 Z B net1 gnd nmos_vtg m=1 w=0.18u l=0.05u 
Mpnand2_nmos2 net1 A gnd gnd nmos_vtg m=1 w=0.18u l=0.05u 
.ENDS sram_0rw1r1w_576_16_freepdk45_pnand2_1

* spice ptx M{0} {1} nmos_vtg m=1 w=0.18u l=0.05u pd=0.46u ps=0.46u as=0.02p ad=0.02p

.SUBCKT sram_0rw1r1w_576_16_freepdk45_pnand3_0
+ A B C Z vdd gnd
* INPUT : A 
* INPUT : B 
* INPUT : C 
* OUTPUT: Z 
* POWER : vdd 
* GROUND: gnd 
* size: 1
Mpnand3_pmos1 vdd A Z vdd pmos_vtg m=1 w=0.27u l=0.05u 
Mpnand3_pmos2 Z B vdd vdd pmos_vtg m=1 w=0.27u l=0.05u 
Mpnand3_pmos3 Z C vdd vdd pmos_vtg m=1 w=0.27u l=0.05u 
Mpnand3_nmos1 Z C net1 gnd nmos_vtg m=1 w=0.18u l=0.05u 
Mpnand3_nmos2 net1 B net2 gnd nmos_vtg m=1 w=0.18u l=0.05u 
Mpnand3_nmos3 net2 A gnd gnd nmos_vtg m=1 w=0.18u l=0.05u 
.ENDS sram_0rw1r1w_576_16_freepdk45_pnand3_0

* spice ptx M{0} {1} pmos_vtg m=171 w=0.9225u l=0.05u pd=1.95u ps=1.95u as=0.12p ad=0.12p

* spice ptx M{0} {1} nmos_vtg m=171 w=0.3075u l=0.05u pd=0.71u ps=0.71u as=0.04p ad=0.04p

.SUBCKT sram_0rw1r1w_576_16_freepdk45_pinv_13
+ A Z vdd gnd
* INPUT : A 
* OUTPUT: Z 
* POWER : vdd 
* GROUND: gnd 
* size: 584
Mpinv_pmos Z A vdd vdd pmos_vtg m=171 w=0.9225u l=0.05u 
Mpinv_nmos Z A gnd gnd nmos_vtg m=171 w=0.3075u l=0.05u 
.ENDS sram_0rw1r1w_576_16_freepdk45_pinv_13

.SUBCKT sram_0rw1r1w_576_16_freepdk45_pdriver_2
+ A Z vdd gnd
* INPUT : A 
* OUTPUT: Z 
* POWER : vdd 
* GROUND: gnd 
* sizes: [584]
Xbuf_inv1
+ A Z vdd gnd
+ sram_0rw1r1w_576_16_freepdk45_pinv_13
.ENDS sram_0rw1r1w_576_16_freepdk45_pdriver_2

.SUBCKT sram_0rw1r1w_576_16_freepdk45_pand3
+ A B C Z vdd gnd
* INPUT : A 
* INPUT : B 
* INPUT : C 
* OUTPUT: Z 
* POWER : vdd 
* GROUND: gnd 
* size: 584
Xpand3_nand
+ A B C zb_int vdd gnd
+ sram_0rw1r1w_576_16_freepdk45_pnand3_0
Xpand3_inv
+ zb_int Z vdd gnd
+ sram_0rw1r1w_576_16_freepdk45_pdriver_2
.ENDS sram_0rw1r1w_576_16_freepdk45_pand3

.SUBCKT sram_0rw1r1w_576_16_freepdk45_control_logic_w
+ csb clk rbl_bl w_en p_en_bar wl_en clk_buf vdd gnd
* INPUT : csb 
* INPUT : clk 
* INPUT : rbl_bl 
* OUTPUT: w_en 
* OUTPUT: p_en_bar 
* OUTPUT: wl_en 
* OUTPUT: clk_buf 
* POWER : vdd 
* GROUND: gnd 
* num_rows: 16
* words_per_row: 1
* word_size 576
Xctrl_dffs
+ csb cs_bar cs clk_buf vdd gnd
+ sram_0rw1r1w_576_16_freepdk45_dff_buf_array
Xclkbuf
+ clk clk_buf vdd gnd
+ sram_0rw1r1w_576_16_freepdk45_pdriver_0
Xinv_clk_bar
+ clk_buf clk_bar vdd gnd
+ sram_0rw1r1w_576_16_freepdk45_pinv_15
Xand2_gated_clk_bar
+ clk_bar cs gated_clk_bar vdd gnd
+ sram_0rw1r1w_576_16_freepdk45_pand2
Xand2_gated_clk_buf
+ clk_buf cs gated_clk_buf vdd gnd
+ sram_0rw1r1w_576_16_freepdk45_pand2
Xbuf_wl_en
+ gated_clk_bar wl_en vdd gnd
+ sram_0rw1r1w_576_16_freepdk45_pdriver_1
Xrbl_bl_delay_inv
+ rbl_bl_delay rbl_bl_delay_bar vdd gnd
+ sram_0rw1r1w_576_16_freepdk45_pinv_15
Xw_en_and
+ cs rbl_bl_delay_bar gated_clk_bar w_en vdd gnd
+ sram_0rw1r1w_576_16_freepdk45_pand3
Xdelay_chain
+ rbl_bl rbl_bl_delay vdd gnd
+ sram_0rw1r1w_576_16_freepdk45_delay_chain
Xnand_p_en_bar
+ gated_clk_buf rbl_bl_delay p_en_bar_unbuf vdd gnd
+ sram_0rw1r1w_576_16_freepdk45_pnand2_1
Xbuf_p_en_bar
+ p_en_bar_unbuf p_en_bar vdd gnd
+ sram_0rw1r1w_576_16_freepdk45_pdriver_4
.ENDS sram_0rw1r1w_576_16_freepdk45_control_logic_w

* spice ptx M{0} {1} pmos_vtg m=169 w=0.92u l=0.05u pd=1.94u ps=1.94u as=0.12p ad=0.12p

* spice ptx M{0} {1} nmos_vtg m=169 w=0.3075u l=0.05u pd=0.71u ps=0.71u as=0.04p ad=0.04p

.SUBCKT sram_0rw1r1w_576_16_freepdk45_pinv_14
+ A Z vdd gnd
* INPUT : A 
* OUTPUT: Z 
* POWER : vdd 
* GROUND: gnd 
* size: 576
Mpinv_pmos Z A vdd vdd pmos_vtg m=169 w=0.92u l=0.05u 
Mpinv_nmos Z A gnd gnd nmos_vtg m=169 w=0.3075u l=0.05u 
.ENDS sram_0rw1r1w_576_16_freepdk45_pinv_14

.SUBCKT sram_0rw1r1w_576_16_freepdk45_pdriver_3
+ A Z vdd gnd
* INPUT : A 
* OUTPUT: Z 
* POWER : vdd 
* GROUND: gnd 
* sizes: [576]
Xbuf_inv1
+ A Z vdd gnd
+ sram_0rw1r1w_576_16_freepdk45_pinv_14
.ENDS sram_0rw1r1w_576_16_freepdk45_pdriver_3

.SUBCKT sram_0rw1r1w_576_16_freepdk45_pand3_0
+ A B C Z vdd gnd
* INPUT : A 
* INPUT : B 
* INPUT : C 
* OUTPUT: Z 
* POWER : vdd 
* GROUND: gnd 
* size: 576
Xpand3_nand
+ A B C zb_int vdd gnd
+ sram_0rw1r1w_576_16_freepdk45_pnand3_0
Xpand3_inv
+ zb_int Z vdd gnd
+ sram_0rw1r1w_576_16_freepdk45_pdriver_3
.ENDS sram_0rw1r1w_576_16_freepdk45_pand3_0

.SUBCKT sram_0rw1r1w_576_16_freepdk45_control_logic_r
+ csb clk rbl_bl s_en p_en_bar wl_en clk_buf vdd gnd
* INPUT : csb 
* INPUT : clk 
* INPUT : rbl_bl 
* OUTPUT: s_en 
* OUTPUT: p_en_bar 
* OUTPUT: wl_en 
* OUTPUT: clk_buf 
* POWER : vdd 
* GROUND: gnd 
* num_rows: 16
* words_per_row: 1
* word_size 576
Xctrl_dffs
+ csb cs_bar cs clk_buf vdd gnd
+ sram_0rw1r1w_576_16_freepdk45_dff_buf_array
Xclkbuf
+ clk clk_buf vdd gnd
+ sram_0rw1r1w_576_16_freepdk45_pdriver_0
Xinv_clk_bar
+ clk_buf clk_bar vdd gnd
+ sram_0rw1r1w_576_16_freepdk45_pinv_15
Xand2_gated_clk_bar
+ clk_bar cs gated_clk_bar vdd gnd
+ sram_0rw1r1w_576_16_freepdk45_pand2
Xand2_gated_clk_buf
+ clk_buf cs gated_clk_buf vdd gnd
+ sram_0rw1r1w_576_16_freepdk45_pand2
Xbuf_wl_en
+ gated_clk_bar wl_en vdd gnd
+ sram_0rw1r1w_576_16_freepdk45_pdriver_1
Xbuf_s_en_and
+ rbl_bl_delay gated_clk_bar cs s_en vdd gnd
+ sram_0rw1r1w_576_16_freepdk45_pand3_0
Xdelay_chain
+ rbl_bl rbl_bl_delay vdd gnd
+ sram_0rw1r1w_576_16_freepdk45_delay_chain
Xnand_p_en_bar
+ gated_clk_buf rbl_bl_delay p_en_bar_unbuf vdd gnd
+ sram_0rw1r1w_576_16_freepdk45_pnand2_1
Xbuf_p_en_bar
+ p_en_bar_unbuf p_en_bar vdd gnd
+ sram_0rw1r1w_576_16_freepdk45_pdriver_4
.ENDS sram_0rw1r1w_576_16_freepdk45_control_logic_r

.SUBCKT dummy_cell_2rw bl0 br0 bl1 br1 wl0 wl1 vdd gnd
MM9 RA_to_R_right wl1 br1_noconn gnd NMOS_VTG W=180.0n L=50n m=1
MM8 RA_to_R_right Q gnd gnd NMOS_VTG W=180.0n L=50n m=1
MM7 RA_to_R_left Q_bar gnd gnd NMOS_VTG W=180.0n L=50n m=1
MM6 RA_to_R_left wl1 bl1_noconn gnd NMOS_VTG W=180.0n L=50n m=1
MM5 Q wl0 bl0_noconn gnd NMOS_VTG W=135.00n L=50n m=1
MM4 Q_bar wl0 br0_noconn gnd NMOS_VTG W=135.00n L=50n m=1
MM1 Q Q_bar gnd gnd NMOS_VTG W=205.0n L=50n m=1
MM0 Q_bar Q gnd gnd NMOS_VTG W=205.0n L=50n m=1
MM3 Q Q_bar vdd vdd PMOS_VTG W=90n L=50n m=1
MM2 Q_bar Q vdd vdd PMOS_VTG W=90n L=50n m=1
.ENDS


.SUBCKT sram_0rw1r1w_576_16_freepdk45_dummy_array_2
+ bl_0_0 bl_1_0 br_0_0 br_1_0 wl_0_0 wl_1_0 wl_0_1 wl_1_1 wl_0_2 wl_1_2
+ wl_0_3 wl_1_3 wl_0_4 wl_1_4 wl_0_5 wl_1_5 wl_0_6 wl_1_6 wl_0_7 wl_1_7
+ wl_0_8 wl_1_8 wl_0_9 wl_1_9 wl_0_10 wl_1_10 wl_0_11 wl_1_11 wl_0_12
+ wl_1_12 wl_0_13 wl_1_13 wl_0_14 wl_1_14 wl_0_15 wl_1_15 wl_0_16
+ wl_1_16 wl_0_17 wl_1_17 wl_0_18 wl_1_18 wl_0_19 wl_1_19 vdd gnd
* INOUT : bl_0_0 
* INOUT : bl_1_0 
* INOUT : br_0_0 
* INOUT : br_1_0 
* INPUT : wl_0_0 
* INPUT : wl_1_0 
* INPUT : wl_0_1 
* INPUT : wl_1_1 
* INPUT : wl_0_2 
* INPUT : wl_1_2 
* INPUT : wl_0_3 
* INPUT : wl_1_3 
* INPUT : wl_0_4 
* INPUT : wl_1_4 
* INPUT : wl_0_5 
* INPUT : wl_1_5 
* INPUT : wl_0_6 
* INPUT : wl_1_6 
* INPUT : wl_0_7 
* INPUT : wl_1_7 
* INPUT : wl_0_8 
* INPUT : wl_1_8 
* INPUT : wl_0_9 
* INPUT : wl_1_9 
* INPUT : wl_0_10 
* INPUT : wl_1_10 
* INPUT : wl_0_11 
* INPUT : wl_1_11 
* INPUT : wl_0_12 
* INPUT : wl_1_12 
* INPUT : wl_0_13 
* INPUT : wl_1_13 
* INPUT : wl_0_14 
* INPUT : wl_1_14 
* INPUT : wl_0_15 
* INPUT : wl_1_15 
* INPUT : wl_0_16 
* INPUT : wl_1_16 
* INPUT : wl_0_17 
* INPUT : wl_1_17 
* INPUT : wl_0_18 
* INPUT : wl_1_18 
* INPUT : wl_0_19 
* INPUT : wl_1_19 
* POWER : vdd 
* GROUND: gnd 
Xbit_r0_c0
+ bl_0_0 br_0_0 bl_1_0 br_1_0 wl_0_0 wl_1_0 vdd gnd
+ dummy_cell_2rw
Xbit_r1_c0
+ bl_0_0 br_0_0 bl_1_0 br_1_0 wl_0_1 wl_1_1 vdd gnd
+ dummy_cell_2rw
Xbit_r2_c0
+ bl_0_0 br_0_0 bl_1_0 br_1_0 wl_0_2 wl_1_2 vdd gnd
+ dummy_cell_2rw
Xbit_r3_c0
+ bl_0_0 br_0_0 bl_1_0 br_1_0 wl_0_3 wl_1_3 vdd gnd
+ dummy_cell_2rw
Xbit_r4_c0
+ bl_0_0 br_0_0 bl_1_0 br_1_0 wl_0_4 wl_1_4 vdd gnd
+ dummy_cell_2rw
Xbit_r5_c0
+ bl_0_0 br_0_0 bl_1_0 br_1_0 wl_0_5 wl_1_5 vdd gnd
+ dummy_cell_2rw
Xbit_r6_c0
+ bl_0_0 br_0_0 bl_1_0 br_1_0 wl_0_6 wl_1_6 vdd gnd
+ dummy_cell_2rw
Xbit_r7_c0
+ bl_0_0 br_0_0 bl_1_0 br_1_0 wl_0_7 wl_1_7 vdd gnd
+ dummy_cell_2rw
Xbit_r8_c0
+ bl_0_0 br_0_0 bl_1_0 br_1_0 wl_0_8 wl_1_8 vdd gnd
+ dummy_cell_2rw
Xbit_r9_c0
+ bl_0_0 br_0_0 bl_1_0 br_1_0 wl_0_9 wl_1_9 vdd gnd
+ dummy_cell_2rw
Xbit_r10_c0
+ bl_0_0 br_0_0 bl_1_0 br_1_0 wl_0_10 wl_1_10 vdd gnd
+ dummy_cell_2rw
Xbit_r11_c0
+ bl_0_0 br_0_0 bl_1_0 br_1_0 wl_0_11 wl_1_11 vdd gnd
+ dummy_cell_2rw
Xbit_r12_c0
+ bl_0_0 br_0_0 bl_1_0 br_1_0 wl_0_12 wl_1_12 vdd gnd
+ dummy_cell_2rw
Xbit_r13_c0
+ bl_0_0 br_0_0 bl_1_0 br_1_0 wl_0_13 wl_1_13 vdd gnd
+ dummy_cell_2rw
Xbit_r14_c0
+ bl_0_0 br_0_0 bl_1_0 br_1_0 wl_0_14 wl_1_14 vdd gnd
+ dummy_cell_2rw
Xbit_r15_c0
+ bl_0_0 br_0_0 bl_1_0 br_1_0 wl_0_15 wl_1_15 vdd gnd
+ dummy_cell_2rw
Xbit_r16_c0
+ bl_0_0 br_0_0 bl_1_0 br_1_0 wl_0_16 wl_1_16 vdd gnd
+ dummy_cell_2rw
Xbit_r17_c0
+ bl_0_0 br_0_0 bl_1_0 br_1_0 wl_0_17 wl_1_17 vdd gnd
+ dummy_cell_2rw
Xbit_r18_c0
+ bl_0_0 br_0_0 bl_1_0 br_1_0 wl_0_18 wl_1_18 vdd gnd
+ dummy_cell_2rw
Xbit_r19_c0
+ bl_0_0 br_0_0 bl_1_0 br_1_0 wl_0_19 wl_1_19 vdd gnd
+ dummy_cell_2rw
.ENDS sram_0rw1r1w_576_16_freepdk45_dummy_array_2

.SUBCKT replica_cell_2rw bl0 br0 bl1 br1 wl0 wl1 vdd gnd
MM9 RA_to_R_right wl1 br1 gnd NMOS_VTG W=180.0n L=50n m=1
MM8 RA_to_R_right Q gnd gnd NMOS_VTG W=180.0n L=50n m=1
MM7 RA_to_R_left vdd gnd gnd NMOS_VTG W=180.0n L=50n m=1
MM6 RA_to_R_left wl1 bl1 gnd NMOS_VTG W=180.0n L=50n m=1
MM5 Q wl0 bl0 gnd NMOS_VTG W=135.00n L=50n m=1
MM4 vdd wl0 br0 gnd NMOS_VTG W=135.00n L=50n m=1
MM1 Q vdd gnd gnd NMOS_VTG W=205.0n L=50n m=1
MM0 vdd Q gnd gnd NMOS_VTG W=205.0n L=50n m=1
MM3 Q vdd vdd vdd PMOS_VTG W=90n L=50n m=1
MM2 vdd Q vdd vdd PMOS_VTG W=90n L=50n m=1
.ENDS


.SUBCKT sram_0rw1r1w_576_16_freepdk45_replica_column_0
+ bl_0_0 bl_1_0 br_0_0 br_1_0 wl_0_0 wl_1_0 wl_0_1 wl_1_1 wl_0_2 wl_1_2
+ wl_0_3 wl_1_3 wl_0_4 wl_1_4 wl_0_5 wl_1_5 wl_0_6 wl_1_6 wl_0_7 wl_1_7
+ wl_0_8 wl_1_8 wl_0_9 wl_1_9 wl_0_10 wl_1_10 wl_0_11 wl_1_11 wl_0_12
+ wl_1_12 wl_0_13 wl_1_13 wl_0_14 wl_1_14 wl_0_15 wl_1_15 wl_0_16
+ wl_1_16 wl_0_17 wl_1_17 vdd gnd
* OUTPUT: bl_0_0 
* OUTPUT: bl_1_0 
* OUTPUT: br_0_0 
* OUTPUT: br_1_0 
* INPUT : wl_0_0 
* INPUT : wl_1_0 
* INPUT : wl_0_1 
* INPUT : wl_1_1 
* INPUT : wl_0_2 
* INPUT : wl_1_2 
* INPUT : wl_0_3 
* INPUT : wl_1_3 
* INPUT : wl_0_4 
* INPUT : wl_1_4 
* INPUT : wl_0_5 
* INPUT : wl_1_5 
* INPUT : wl_0_6 
* INPUT : wl_1_6 
* INPUT : wl_0_7 
* INPUT : wl_1_7 
* INPUT : wl_0_8 
* INPUT : wl_1_8 
* INPUT : wl_0_9 
* INPUT : wl_1_9 
* INPUT : wl_0_10 
* INPUT : wl_1_10 
* INPUT : wl_0_11 
* INPUT : wl_1_11 
* INPUT : wl_0_12 
* INPUT : wl_1_12 
* INPUT : wl_0_13 
* INPUT : wl_1_13 
* INPUT : wl_0_14 
* INPUT : wl_1_14 
* INPUT : wl_0_15 
* INPUT : wl_1_15 
* INPUT : wl_0_16 
* INPUT : wl_1_16 
* INPUT : wl_0_17 
* INPUT : wl_1_17 
* POWER : vdd 
* GROUND: gnd 
Xrbc_0
+ bl_0_0 br_0_0 bl_1_0 br_1_0 wl_0_0 wl_1_0 vdd gnd
+ dummy_cell_2rw
Xrbc_1
+ bl_0_0 br_0_0 bl_1_0 br_1_0 wl_0_1 wl_1_1 vdd gnd
+ replica_cell_2rw
Xrbc_2
+ bl_0_0 br_0_0 bl_1_0 br_1_0 wl_0_2 wl_1_2 vdd gnd
+ replica_cell_2rw
Xrbc_3
+ bl_0_0 br_0_0 bl_1_0 br_1_0 wl_0_3 wl_1_3 vdd gnd
+ replica_cell_2rw
Xrbc_4
+ bl_0_0 br_0_0 bl_1_0 br_1_0 wl_0_4 wl_1_4 vdd gnd
+ replica_cell_2rw
Xrbc_5
+ bl_0_0 br_0_0 bl_1_0 br_1_0 wl_0_5 wl_1_5 vdd gnd
+ replica_cell_2rw
Xrbc_6
+ bl_0_0 br_0_0 bl_1_0 br_1_0 wl_0_6 wl_1_6 vdd gnd
+ replica_cell_2rw
Xrbc_7
+ bl_0_0 br_0_0 bl_1_0 br_1_0 wl_0_7 wl_1_7 vdd gnd
+ replica_cell_2rw
Xrbc_8
+ bl_0_0 br_0_0 bl_1_0 br_1_0 wl_0_8 wl_1_8 vdd gnd
+ replica_cell_2rw
Xrbc_9
+ bl_0_0 br_0_0 bl_1_0 br_1_0 wl_0_9 wl_1_9 vdd gnd
+ replica_cell_2rw
Xrbc_10
+ bl_0_0 br_0_0 bl_1_0 br_1_0 wl_0_10 wl_1_10 vdd gnd
+ replica_cell_2rw
Xrbc_11
+ bl_0_0 br_0_0 bl_1_0 br_1_0 wl_0_11 wl_1_11 vdd gnd
+ replica_cell_2rw
Xrbc_12
+ bl_0_0 br_0_0 bl_1_0 br_1_0 wl_0_12 wl_1_12 vdd gnd
+ replica_cell_2rw
Xrbc_13
+ bl_0_0 br_0_0 bl_1_0 br_1_0 wl_0_13 wl_1_13 vdd gnd
+ replica_cell_2rw
Xrbc_14
+ bl_0_0 br_0_0 bl_1_0 br_1_0 wl_0_14 wl_1_14 vdd gnd
+ replica_cell_2rw
Xrbc_15
+ bl_0_0 br_0_0 bl_1_0 br_1_0 wl_0_15 wl_1_15 vdd gnd
+ replica_cell_2rw
Xrbc_16
+ bl_0_0 br_0_0 bl_1_0 br_1_0 wl_0_16 wl_1_16 vdd gnd
+ replica_cell_2rw
Xrbc_17
+ bl_0_0 br_0_0 bl_1_0 br_1_0 wl_0_17 wl_1_17 vdd gnd
+ replica_cell_2rw
.ENDS sram_0rw1r1w_576_16_freepdk45_replica_column_0

.SUBCKT cell_2rw bl0 br0 bl1 br1 wl0 wl1 vdd gnd
MM9 RA_to_R_right wl1 br1 gnd NMOS_VTG W=180.0n L=50n m=1
MM8 RA_to_R_right Q gnd gnd NMOS_VTG W=180.0n L=50n m=1
MM7 RA_to_R_left Q_bar gnd gnd NMOS_VTG W=180.0n L=50n m=1
MM6 RA_to_R_left wl1 bl1 gnd NMOS_VTG W=180.0n L=50n m=1
MM5 Q wl0 bl0 gnd NMOS_VTG W=135.00n L=50n m=1
MM4 Q_bar wl0 br0 gnd NMOS_VTG W=135.00n L=50n m=1
MM1 Q Q_bar gnd gnd NMOS_VTG W=205.0n L=50n m=1
MM0 Q_bar Q gnd gnd NMOS_VTG W=205.0n L=50n m=1
MM3 Q Q_bar vdd vdd PMOS_VTG W=90n L=50n m=1
MM2 Q_bar Q vdd vdd PMOS_VTG W=90n L=50n m=1
.ENDS


.SUBCKT sram_0rw1r1w_576_16_freepdk45_bitcell_array
+ bl_0_0 bl_1_0 br_0_0 br_1_0 bl_0_1 bl_1_1 br_0_1 br_1_1 bl_0_2 bl_1_2